R1 2 1 1
R2 0 2 0.5
V1 1 0 1.5
* V2
* GND
* Ie
.backanno
.end