Version 4
SHEET 1 880 680
WIRE 320 32 304 32
WIRE 416 32 400 32
WIRE 0 112 -80 112
WIRE 64 112 0 112
WIRE 240 112 144 112
WIRE 304 112 304 32
WIRE 304 112 240 112
WIRE -80 144 -80 112
WIRE 416 176 416 32
WIRE 416 176 384 176
WIRE 304 192 304 112
WIRE 336 192 304 192
WIRE 48 240 16 240
WIRE 64 240 48 240
WIRE 224 240 144 240
WIRE 336 240 224 240
WIRE -80 320 -80 224
WIRE 16 320 -80 320
WIRE 224 320 16 320
WIRE 384 320 384 256
WIRE 384 320 224 320
WIRE 224 336 224 320
FLAG 224 336 0
FLAG 0 112 1
FLAG 240 112 3
FLAG 48 240 2
FLAG 224 240 4
FLAG 416 176 5
SYMBOL res 160 96 R90
WINDOW 0 0 56 VBottom 2
WINDOW 3 32 56 VTop 2
SYMATTR InstName R1
SYMATTR Value 1
SYMBOL res 160 224 R90
WINDOW 0 0 56 VBottom 2
WINDOW 3 32 56 VTop 2
SYMATTR InstName R2
SYMATTR Value 1
SYMBOL res 416 16 R90
WINDOW 0 0 56 VBottom 2
WINDOW 3 32 56 VTop 2
SYMATTR InstName R3
SYMATTR Value 1
SYMBOL res 208 224 R0
SYMATTR InstName R4
SYMATTR Value 1
SYMBOL voltage -80 128 R0
WINDOW 123 0 0 Left 0
WINDOW 39 0 0 Left 0
SYMATTR InstName V1
SYMATTR Value 5
SYMBOL voltage 16 224 R0
WINDOW 0 -62 40 Left 2
WINDOW 3 -52 82 Left 2
WINDOW 123 0 0 Left 0
WINDOW 39 0 0 Left 0
SYMATTR InstName V2
SYMATTR Value 2
SYMBOL e 384 160 R0
WINDOW 0 -37 14 Left 2
WINDOW 3 -30 98 Left 2
SYMATTR InstName E1
SYMATTR Value 100
TEXT -112 360 Left 2 !.op
