Version 4
SHEET 1 880 680
WIRE 320 32 304 32
WIRE 416 32 400 32
WIRE 0 112 -80 112
WIRE 64 112 0 112
WIRE 240 112 144 112
WIRE 304 112 304 32
WIRE 304 112 240 112
WIRE -80 144 -80 112
WIRE 304 160 304 112
WIRE 320 160 304 160
WIRE 416 176 416 32
WIRE 416 176 384 176
WIRE 464 176 416 176
WIRE 320 192 304 192
WIRE 48 240 16 240
WIRE 112 240 48 240
WIRE 224 240 192 240
WIRE 304 240 304 192
WIRE 304 240 224 240
WIRE -80 320 -80 224
WIRE 16 320 -80 320
WIRE 224 320 16 320
WIRE 224 336 224 320
FLAG 352 144 15V
FLAG 352 208 -15V
FLAG 464 176 VOUT
FLAG 224 336 0
FLAG 0 112 1
FLAG 240 112 3
FLAG 48 240 2
FLAG 224 240 4
SYMBOL res 160 96 R90
WINDOW 0 0 56 VBottom 2
WINDOW 3 32 56 VTop 2
SYMATTR InstName R1
SYMATTR Value 1
SYMBOL res 208 224 R90
WINDOW 0 0 56 VBottom 2
WINDOW 3 32 56 VTop 2
SYMATTR InstName R2
SYMATTR Value 1
SYMBOL res 416 16 R90
WINDOW 0 0 56 VBottom 2
WINDOW 3 32 56 VTop 2
SYMATTR InstName R3
SYMATTR Value 1
SYMBOL res 208 224 R0
SYMATTR InstName R4
SYMATTR Value 1
SYMBOL OpAmps\\UniversalOpAmp 352 176 R0
SYMATTR InstName E1
SYMBOL voltage -80 128 R0
WINDOW 123 0 0 Left 0
WINDOW 39 0 0 Left 0
SYMATTR InstName Vs1
SYMATTR Value 5
SYMBOL voltage 16 224 R0
WINDOW 0 33 78 Left 2
WINDOW 3 -52 82 Left 2
WINDOW 123 0 0 Left 0
WINDOW 39 0 0 Left 0
SYMATTR InstName Vs2
SYMATTR Value 2
TEXT -112 360 Left 2 !.op
TEXT -96 96 Left 2 ;V1
TEXT -144 272 Left 2 ;Is1
TEXT -8 224 Left 2 ;V2
TEXT 216 200 Left 2 ;V4
TEXT 264 128 Left 2 ;V3
TEXT 400 200 Left 2 ;V5
TEXT 80 208 Left 2 ;Is2
TEXT 440 112 Left 2 ;Ie1
LINE Normal -96 272 -80 288 2
LINE Normal -96 272 -96 272 2
LINE Normal -96 272 -96 272 2
LINE Normal -96 272 -96 272 2
LINE Normal -96 272 -80 288
LINE Normal -96 272 -96 272
LINE Normal -96 272 -96 272
LINE Normal -64 272 -80 288
LINE Normal 96 224 80 240
LINE Normal 96 256 80 240
LINE Normal 400 112 416 128
LINE Normal 432 112 416 128
